[TITLE]
foss_poly_1 -- Bragalli, D'Ambrosio, Lee, Lodi, Toth (2008)

[JUNCTIONS]
;ID              	Elev        	Demand      	Pattern         
;NFLOURS    Value
;PRESS_DRIVEN    Ref.press   Tresh.press
 1               	65.15       	0.49        	                	;
; NFLOURS     	1           
; PRESS_DRIVEN	14.276	-1.0        
 2               	64.40       	1.04        	                	;
; NFLOURS     	1           
; PRESS_DRIVEN	14.276	-1.0        
 3               	63.35       	1.02        	                	;
; NFLOURS     	1           
; PRESS_DRIVEN	14.276	-1.0        
 4               	62.50       	0.81        	                	;
; NFLOURS     	1           
; PRESS_DRIVEN	14.276	-1.0        
 5               	61.24       	0.63        	                	;
; NFLOURS     	1           
; PRESS_DRIVEN	14.276	-1.0        
 6               	65.40       	0.79        	                	;
; NFLOURS     	1           
; PRESS_DRIVEN	14.276	-1.0        
 7               	67.90       	0.26        	                	;
; NFLOURS     	1           
; PRESS_DRIVEN	14.276	-1.0        
 8               	66.50       	0.58        	                	;
; NFLOURS     	1           
; PRESS_DRIVEN	14.276	-1.0        
 9               	66.00       	0.54        	                	;
; NFLOURS     	1           
; PRESS_DRIVEN	14.276	-1.0        
 10              	64.17       	1.11        	                	;
; NFLOURS     	1           
; PRESS_DRIVEN	14.276	-1.0        
 11              	63.70       	1.75        	                	;
; NFLOURS     	1           
; PRESS_DRIVEN	14.276	-1.0        
 12              	62.64       	0.91        	                	;
; NFLOURS     	1           
; PRESS_DRIVEN	14.276	-1.0        
 13              	61.90       	1.16        	                	;
; NFLOURS     	1           
; PRESS_DRIVEN	14.276	-1.0        
 14              	62.60       	0.54        	                	;
; NFLOURS     	1           
; PRESS_DRIVEN	14.276	-1.0        
 15              	63.50       	1.10        	                	;
; NFLOURS     	1           
; PRESS_DRIVEN	14.276	-1.0        
 16              	64.30       	1.21        	                	;
; NFLOURS     	1           
; PRESS_DRIVEN	14.276	-1.0        
 17              	65.50       	1.27        	                	;
; NFLOURS     	1           
; PRESS_DRIVEN	14.276	-1.0        
 18              	64.10       	2.02        	                	;
; NFLOURS     	1           
; PRESS_DRIVEN	14.276	-1.0        
 19              	62.90       	1.88        	                	;
; NFLOURS     	1           
; PRESS_DRIVEN	14.276	-1.0        
 20              	62.83       	0.93        	                	;
; NFLOURS     	1           
; PRESS_DRIVEN	14.276	-1.0        
 21              	62.80       	0.96        	                	;
; NFLOURS     	1           
; PRESS_DRIVEN	14.276	-1.0        
 22              	63.90       	0.97        	                	;
; NFLOURS     	1           
; PRESS_DRIVEN	14.276	-1.0        
 23              	64.20       	0.86        	                	;
; NFLOURS     	1           
; PRESS_DRIVEN	14.276	-1.0        
 24              	67.50       	0.67        	                	;
; NFLOURS     	1           
; PRESS_DRIVEN	14.276	-1.0        
 25              	64.40       	0.77        	                	;
; NFLOURS     	1           
; PRESS_DRIVEN	14.276	-1.0        
 26              	63.40       	1.69        	                	;
; NFLOURS     	1           
; PRESS_DRIVEN	14.276	-1.0        
 27              	63.90       	1.42        	                	;
; NFLOURS     	1           
; PRESS_DRIVEN	14.276	-1.0        
 28              	65.65       	0.30        	                	;
; NFLOURS     	1           
; PRESS_DRIVEN	14.276	-1.0        
 29              	64.50       	0.62        	                	;
; NFLOURS     	1           
; PRESS_DRIVEN	14.276	-1.0        
 30              	64.10       	0.54        	                	;
; NFLOURS     	1           
; PRESS_DRIVEN	14.276	-1.0        
 31              	64.40       	0.90        	                	;
; NFLOURS     	1           
; PRESS_DRIVEN	14.276	-1.0        
 32              	64.20       	1.03        	                	;
; NFLOURS     	1           
; PRESS_DRIVEN	14.276	-1.0        
 33              	64.60       	0.77        	                	;
; NFLOURS     	1           
; PRESS_DRIVEN	14.276	-1.0        
 34              	64.70       	0.74        	                	;
; NFLOURS     	1           
; PRESS_DRIVEN	14.276	-1.0        
 35              	65.43       	1.16        	                	;
; NFLOURS     	1           
; PRESS_DRIVEN	14.276	-1.0        
 36              	65.90       	0.47        	                	;
; NFLOURS     	1           
; PRESS_DRIVEN	14.276	-1.0        

[RESERVOIRS]
;ID              	Head        	Pattern         
 37              	121.00      	                	; 

[TANKS]
;ID              	Elevation   	InitLevel   	MinLevel    	MaxLevel    	Diameter    	MinVol      	VolCurve

[PIPES]
;ID              	Node1           	Node2           	Length      	Diameter    	Roughness   	MinorLoss   	Status
; SIZINGDATA	 Bulk coeff. 	Wall coeff. 	Diam. Zone   	Material    	Is Sizable  	D. Coeff.   	Demand Patt 	Loss Coeff. 	Loss Patt   
 1               	1               	17              	132.76      	40.80       	150.00      	0.00        	Open  	; 
; SIZINGDATA      	""          	""          	0           	            	Yes         	1.0         	""          	1.0         	""          	;Used in Network Sizing
 2               	17              	2               	374.68      	16.00       	150.00      	0.00        	Open  	; 
; SIZINGDATA      	""          	""          	0           	            	Yes         	1.0         	""          	1.0         	""          	;Used in Network Sizing
 3               	2               	3               	119.74      	16.00       	150.00      	0.00        	Open  	; 
; SIZINGDATA      	""          	""          	0           	            	Yes         	1.0         	""          	1.0         	""          	;Used in Network Sizing
 4               	3               	4               	312.72      	16.00       	150.00      	0.00        	Open  	; 
; SIZINGDATA      	""          	""          	0           	            	Yes         	1.0         	""          	1.0         	""          	;Used in Network Sizing
 5               	4               	5               	289.09      	26.00       	150.00      	0.00        	Open  	; 
; SIZINGDATA      	""          	""          	0           	            	Yes         	1.0         	""          	1.0         	""          	;Used in Network Sizing
 6               	5               	6               	336.33      	16.00       	150.00      	0.00        	Open  	; 
; SIZINGDATA      	""          	""          	0           	            	Yes         	1.0         	""          	1.0         	""          	;Used in Network Sizing
 7               	6               	7               	135.81      	16.00       	150.00      	0.00        	Open  	; 
; SIZINGDATA      	""          	""          	0           	            	Yes         	1.0         	""          	1.0         	""          	;Used in Network Sizing
 8               	7               	24              	201.26      	16.00       	150.00      	0.00        	Open  	; 
; SIZINGDATA      	""          	""          	0           	            	Yes         	1.0         	""          	1.0         	""          	;Used in Network Sizing
 9               	24              	8               	132.53      	16.00       	150.00      	0.00        	Open  	; 
; SIZINGDATA      	""          	""          	0           	            	Yes         	1.0         	""          	1.0         	""          	;Used in Network Sizing
 10              	8               	28              	144.66      	16.00       	150.00      	0.00        	Open  	; 
; SIZINGDATA      	""          	""          	0           	            	Yes         	1.0         	""          	1.0         	""          	;Used in Network Sizing
 11              	28              	9               	175.72      	20.40       	150.00      	0.00        	Open  	; 
; SIZINGDATA      	""          	""          	0           	            	Yes         	1.0         	""          	1.0         	""          	;Used in Network Sizing
 12              	9               	36              	112.17      	32.60       	150.00      	0.00        	Open  	; 
; SIZINGDATA      	""          	""          	0           	            	Yes         	1.0         	""          	1.0         	""          	;Used in Network Sizing
 13              	36              	1               	210.74      	51.40       	150.00      	0.00        	Open  	; 
; SIZINGDATA      	""          	""          	0           	            	Yes         	1.0         	""          	1.0         	""          	;Used in Network Sizing
 14              	1               	31              	75.41       	204.60      	150.00      	0.00        	Open  	; 
; SIZINGDATA      	""          	""          	0           	            	Yes         	1.0         	""          	1.0         	""          	;Used in Network Sizing
 15              	31              	10              	181.42      	184.00      	150.00      	0.00        	Open  	; 
; SIZINGDATA      	""          	""          	0           	            	Yes         	1.0         	""          	1.0         	""          	;Used in Network Sizing
 16              	10              	11              	146.96      	147.20      	150.00      	0.00        	Open  	; 
; SIZINGDATA      	""          	""          	0           	            	Yes         	1.0         	""          	1.0         	""          	;Used in Network Sizing
 17              	11              	19              	162.69      	90.00       	150.00      	0.00        	Open  	; 
; SIZINGDATA      	""          	""          	0           	            	Yes         	1.0         	""          	1.0         	""          	;Used in Network Sizing
 18              	19              	12              	99.64       	73.60       	150.00      	0.00        	Open  	; 
; SIZINGDATA      	""          	""          	0           	            	Yes         	1.0         	""          	1.0         	""          	;Used in Network Sizing
 19              	12              	4               	52.98       	40.80       	150.00      	0.00        	Open  	; 
; SIZINGDATA      	""          	""          	0           	            	Yes         	1.0         	""          	1.0         	""          	;Used in Network Sizing
 20              	2               	18              	162.97      	40.80       	150.00      	0.00        	Open  	; 
; SIZINGDATA      	""          	""          	0           	            	Yes         	1.0         	""          	1.0         	""          	;Used in Network Sizing
 21              	18              	10              	83.96       	73.60       	150.00      	0.00        	Open  	; 
; SIZINGDATA      	""          	""          	0           	            	Yes         	1.0         	""          	1.0         	""          	;Used in Network Sizing
 22              	10              	32              	49.82       	102.20      	150.00      	0.00        	Open  	; 
; SIZINGDATA      	""          	""          	0           	            	Yes         	1.0         	""          	1.0         	""          	;Used in Network Sizing
 23              	32              	27              	78.50       	90.00       	150.00      	0.00        	Open  	; 
; SIZINGDATA      	""          	""          	0           	            	Yes         	1.0         	""          	1.0         	""          	;Used in Network Sizing
 24              	27              	16              	99.27       	73.60       	150.00      	0.00        	Open  	; 
; SIZINGDATA      	""          	""          	0           	            	Yes         	1.0         	""          	1.0         	""          	;Used in Network Sizing
 25              	16              	25              	82.29       	61.40       	150.00      	0.00        	Open  	; 
; SIZINGDATA      	""          	""          	0           	            	Yes         	1.0         	""          	1.0         	""          	;Used in Network Sizing
 26              	25              	8               	147.49      	32.60       	150.00      	0.00        	Open  	; 
; SIZINGDATA      	""          	""          	0           	            	Yes         	1.0         	""          	1.0         	""          	;Used in Network Sizing
 27              	3               	11              	197.32      	40.80       	150.00      	0.00        	Open  	; 
; SIZINGDATA      	""          	""          	0           	            	Yes         	1.0         	""          	1.0         	""          	;Used in Network Sizing
 28              	11              	26              	83.30       	102.20      	150.00      	0.00        	Open  	; 
; SIZINGDATA      	""          	""          	0           	            	Yes         	1.0         	""          	1.0         	""          	;Used in Network Sizing
 29              	26              	15              	113.80      	90.00       	150.00      	0.00        	Open  	; 
; SIZINGDATA      	""          	""          	0           	            	Yes         	1.0         	""          	1.0         	""          	;Used in Network Sizing
 30              	15              	22              	80.82       	61.40       	150.00      	0.00        	Open  	; 
; SIZINGDATA      	""          	""          	0           	            	Yes         	1.0         	""          	1.0         	""          	;Used in Network Sizing
 31              	22              	7               	340.97      	26.00       	150.00      	0.00        	Open  	; 
; SIZINGDATA      	""          	""          	0           	            	Yes         	1.0         	""          	1.0         	""          	;Used in Network Sizing
 32              	5               	13              	77.39       	16.00       	150.00      	0.00        	Open  	; 
; SIZINGDATA      	""          	""          	0           	            	Yes         	1.0         	""          	1.0         	""          	;Used in Network Sizing
 33              	13              	14              	112.37      	16.00       	150.00      	0.00        	Open  	; 
; SIZINGDATA      	""          	""          	0           	            	Yes         	1.0         	""          	1.0         	""          	;Used in Network Sizing
 34              	14              	20              	37.34       	40.80       	150.00      	0.00        	Open  	; 
; SIZINGDATA      	""          	""          	0           	            	Yes         	1.0         	""          	1.0         	""          	;Used in Network Sizing
 35              	20              	15              	108.85      	51.40       	150.00      	0.00        	Open  	; 
; SIZINGDATA      	""          	""          	0           	            	Yes         	1.0         	""          	1.0         	""          	;Used in Network Sizing
 36              	15              	16              	182.82      	16.00       	150.00      	0.00        	Open  	; 
; SIZINGDATA      	""          	""          	0           	            	Yes         	1.0         	""          	1.0         	""          	;Used in Network Sizing
 37              	16              	29              	136.02      	16.00       	150.00      	0.00        	Open  	; 
; SIZINGDATA      	""          	""          	0           	            	Yes         	1.0         	""          	1.0         	""          	;Used in Network Sizing
 38              	29              	30              	56.70       	16.00       	150.00      	0.00        	Open  	; 
; SIZINGDATA      	""          	""          	0           	            	Yes         	1.0         	""          	1.0         	""          	;Used in Network Sizing
 39              	30              	9               	124.08      	16.00       	150.00      	0.00        	Open  	; 
; SIZINGDATA      	""          	""          	0           	            	Yes         	1.0         	""          	1.0         	""          	;Used in Network Sizing
 40              	17              	18              	234.60      	16.00       	150.00      	0.00        	Open  	; 
; SIZINGDATA      	""          	""          	0           	            	Yes         	1.0         	""          	1.0         	""          	;Used in Network Sizing
 41              	12              	13              	203.83      	40.80       	150.00      	0.00        	Open  	; 
; SIZINGDATA      	""          	""          	0           	            	Yes         	1.0         	""          	1.0         	""          	;Used in Network Sizing
 42              	19              	20              	248.05      	16.00       	150.00      	0.00        	Open  	; 
; SIZINGDATA      	""          	""          	0           	            	Yes         	1.0         	""          	1.0         	""          	;Used in Network Sizing
 43              	14              	21              	65.19       	32.60       	150.00      	0.00        	Open  	; 
; SIZINGDATA      	""          	""          	0           	            	Yes         	1.0         	""          	1.0         	""          	;Used in Network Sizing
 44              	21              	6               	210.09      	32.60       	150.00      	0.00        	Open  	; 
; SIZINGDATA      	""          	""          	0           	            	Yes         	1.0         	""          	1.0         	""          	;Used in Network Sizing
 45              	21              	22              	147.57      	40.80       	150.00      	0.00        	Open  	; 
; SIZINGDATA      	""          	""          	0           	            	Yes         	1.0         	""          	1.0         	""          	;Used in Network Sizing
 46              	22              	23              	103.80      	16.00       	150.00      	0.00        	Open  	; 
; SIZINGDATA      	""          	""          	0           	            	Yes         	1.0         	""          	1.0         	""          	;Used in Network Sizing
 47              	24              	23              	210.95      	32.60       	150.00      	0.00        	Open  	; 
; SIZINGDATA      	""          	""          	0           	            	Yes         	1.0         	""          	1.0         	""          	;Used in Network Sizing
 48              	23              	25              	75.08       	51.40       	150.00      	0.00        	Open  	; 
; SIZINGDATA      	""          	""          	0           	            	Yes         	1.0         	""          	1.0         	""          	;Used in Network Sizing
 49              	26              	27              	180.29      	16.00       	150.00      	0.00        	Open  	; 
; SIZINGDATA      	""          	""          	0           	            	Yes         	1.0         	""          	1.0         	""          	;Used in Network Sizing
 50              	28              	29              	149.05      	16.00       	150.00      	0.00        	Open  	; 
; SIZINGDATA      	""          	""          	0           	            	Yes         	1.0         	""          	1.0         	""          	;Used in Network Sizing
 51              	29              	33              	215.05      	32.60       	150.00      	0.00        	Open  	; 
; SIZINGDATA      	""          	""          	0           	            	Yes         	1.0         	""          	1.0         	""          	;Used in Network Sizing
 52              	32              	33              	144.44      	16.00       	150.00      	0.00        	Open  	; 
; SIZINGDATA      	""          	""          	0           	            	Yes         	1.0         	""          	1.0         	""          	;Used in Network Sizing
 53              	33              	34              	34.74       	51.40       	150.00      	0.00        	Open  	; 
; SIZINGDATA      	""          	""          	0           	            	Yes         	1.0         	""          	1.0         	""          	;Used in Network Sizing
 54              	31              	34              	59.93       	73.60       	150.00      	0.00        	Open  	; 
; SIZINGDATA      	""          	""          	0           	            	Yes         	1.0         	""          	1.0         	""          	;Used in Network Sizing
 55              	34              	35              	165.67      	32.60       	150.00      	0.00        	Open  	; 
; SIZINGDATA      	""          	""          	0           	            	Yes         	1.0         	""          	1.0         	""          	;Used in Network Sizing
 56              	30              	35              	119.97      	20.40       	150.00      	0.00        	Open  	; 
; SIZINGDATA      	""          	""          	0           	            	Yes         	1.0         	""          	1.0         	""          	;Used in Network Sizing
 57              	35              	36              	83.17       	32.60       	150.00      	0.00        	Open  	; 
; SIZINGDATA      	""          	""          	0           	            	Yes         	1.0         	""          	1.0         	""          	;Used in Network Sizing
 58              	37              	1               	1.00        	229.20      	150.00      	0.00        	Open  	; 
; SIZINGDATA      	""          	""          	0           	            	Yes         	1.0         	""          	1.0         	""          	;Used in Network Sizing

[PUMPS]
;ID              	Node1           	Node2           	Parameters

[VALVES]
;ID              	Node1           	Node2           	Diameter    	Type	Setting     	MinorLoss   

[TAGS]

[DEMANDS]
;Junction        	Demand      	Pattern         	Category
 1               	0.49        	                	;   
 1               	0           	                	;Pipe: 1  
 1               	0           	                	;Loss: 1  
 1               	0           	                	;Pipe: 13  
 1               	0           	                	;Loss: 13  
 1               	0           	                	;Pipe: 14  
 1               	0           	                	;Loss: 14  
 1               	0           	                	;Pipe: 58  
 1               	0           	                	;Loss: 58  
 2               	1.04        	                	;   
 2               	0           	                	;Pipe: 2  
 2               	0           	                	;Loss: 2  
 2               	0           	                	;Pipe: 3  
 2               	0           	                	;Loss: 3  
 2               	0           	                	;Pipe: 20  
 2               	0           	                	;Loss: 20  
 3               	1.02        	                	;   
 3               	0           	                	;Pipe: 3  
 3               	0           	                	;Loss: 3  
 3               	0           	                	;Pipe: 4  
 3               	0           	                	;Loss: 4  
 3               	0           	                	;Pipe: 27  
 3               	0           	                	;Loss: 27  
 4               	0.81        	                	;   
 4               	0           	                	;Pipe: 4  
 4               	0           	                	;Loss: 4  
 4               	0           	                	;Pipe: 5  
 4               	0           	                	;Loss: 5  
 4               	0           	                	;Pipe: 19  
 4               	0           	                	;Loss: 19  
 5               	0.63        	                	;   
 5               	0           	                	;Pipe: 5  
 5               	0           	                	;Loss: 5  
 5               	0           	                	;Pipe: 6  
 5               	0           	                	;Loss: 6  
 5               	0           	                	;Pipe: 32  
 5               	0           	                	;Loss: 32  
 6               	0.79        	                	;   
 6               	0           	                	;Pipe: 6  
 6               	0           	                	;Loss: 6  
 6               	0           	                	;Pipe: 7  
 6               	0           	                	;Loss: 7  
 6               	0           	                	;Pipe: 44  
 6               	0           	                	;Loss: 44  
 7               	0.26        	                	;   
 7               	0           	                	;Pipe: 7  
 7               	0           	                	;Loss: 7  
 7               	0           	                	;Pipe: 8  
 7               	0           	                	;Loss: 8  
 7               	0           	                	;Pipe: 31  
 7               	0           	                	;Loss: 31  
 8               	0.58        	                	;   
 8               	0           	                	;Pipe: 9  
 8               	0           	                	;Loss: 9  
 8               	0           	                	;Pipe: 10  
 8               	0           	                	;Loss: 10  
 8               	0           	                	;Pipe: 26  
 8               	0           	                	;Loss: 26  
 9               	0.54        	                	;   
 9               	0           	                	;Pipe: 11  
 9               	0           	                	;Loss: 11  
 9               	0           	                	;Pipe: 12  
 9               	0           	                	;Loss: 12  
 9               	0           	                	;Pipe: 39  
 9               	0           	                	;Loss: 39  
 10              	1.11        	                	;   
 10              	0           	                	;Pipe: 15  
 10              	0           	                	;Loss: 15  
 10              	0           	                	;Pipe: 16  
 10              	0           	                	;Loss: 16  
 10              	0           	                	;Pipe: 21  
 10              	0           	                	;Loss: 21  
 10              	0           	                	;Pipe: 22  
 10              	0           	                	;Loss: 22  
 11              	1.75        	                	;   
 11              	0           	                	;Pipe: 16  
 11              	0           	                	;Loss: 16  
 11              	0           	                	;Pipe: 17  
 11              	0           	                	;Loss: 17  
 11              	0           	                	;Pipe: 27  
 11              	0           	                	;Loss: 27  
 11              	0           	                	;Pipe: 28  
 11              	0           	                	;Loss: 28  
 12              	0.91        	                	;   
 12              	0           	                	;Pipe: 18  
 12              	0           	                	;Loss: 18  
 12              	0           	                	;Pipe: 19  
 12              	0           	                	;Loss: 19  
 12              	0           	                	;Pipe: 41  
 12              	0           	                	;Loss: 41  
 13              	1.16        	                	;   
 13              	0           	                	;Pipe: 32  
 13              	0           	                	;Loss: 32  
 13              	0           	                	;Pipe: 33  
 13              	0           	                	;Loss: 33  
 13              	0           	                	;Pipe: 41  
 13              	0           	                	;Loss: 41  
 14              	0.54        	                	;   
 14              	0           	                	;Pipe: 33  
 14              	0           	                	;Loss: 33  
 14              	0           	                	;Pipe: 34  
 14              	0           	                	;Loss: 34  
 14              	0           	                	;Pipe: 43  
 14              	0           	                	;Loss: 43  
 15              	1.10        	                	;   
 15              	0           	                	;Pipe: 29  
 15              	0           	                	;Loss: 29  
 15              	0           	                	;Pipe: 30  
 15              	0           	                	;Loss: 30  
 15              	0           	                	;Pipe: 35  
 15              	0           	                	;Loss: 35  
 15              	0           	                	;Pipe: 36  
 15              	0           	                	;Loss: 36  
 16              	1.21        	                	;   
 16              	0           	                	;Pipe: 24  
 16              	0           	                	;Loss: 24  
 16              	0           	                	;Pipe: 25  
 16              	0           	                	;Loss: 25  
 16              	0           	                	;Pipe: 36  
 16              	0           	                	;Loss: 36  
 16              	0           	                	;Pipe: 37  
 16              	0           	                	;Loss: 37  
 17              	1.27        	                	;   
 17              	0           	                	;Pipe: 1  
 17              	0           	                	;Loss: 1  
 17              	0           	                	;Pipe: 2  
 17              	0           	                	;Loss: 2  
 17              	0           	                	;Pipe: 40  
 17              	0           	                	;Loss: 40  
 18              	2.02        	                	;   
 18              	0           	                	;Pipe: 20  
 18              	0           	                	;Loss: 20  
 18              	0           	                	;Pipe: 21  
 18              	0           	                	;Loss: 21  
 18              	0           	                	;Pipe: 40  
 18              	0           	                	;Loss: 40  
 19              	1.88        	                	;   
 19              	0           	                	;Pipe: 17  
 19              	0           	                	;Loss: 17  
 19              	0           	                	;Pipe: 18  
 19              	0           	                	;Loss: 18  
 19              	0           	                	;Pipe: 42  
 19              	0           	                	;Loss: 42  
 20              	0.93        	                	;   
 20              	0           	                	;Pipe: 34  
 20              	0           	                	;Loss: 34  